*Heading
** Job name: Tri6-SurfaceSet Model name: Model-1
** Generated by: Abaqus/CAE 6.14-4
*Preprint, echo=NO, model=NO, history=NO, contact=NO
**
** PARTS
**
*Part, name=Part-1
*Node
      1,           0.,           0.
      2,           5.,           0.
      3,          10.,           0.
      4,          15.,           0.
      5,          20.,           0.
      6,          25.,           0.
      7,          30.,           0.
      8,          35.,           0.
      9,          40.,           0.
     10,          45.,           0.
     11,          50.,           0.
     12,           0.,           5.
     13,           5.,           5.
     14,          10.,           5.
     15,          15.,           5.
     16,          20.,           5.
     17,          25.,           5.
     18,          30.,           5.
     19,          35.,           5.
     20,          40.,           5.
** ... 253 like lines cut
*Element, type=CPS6M
  1,   1,   2,  13,  78,  79,  80
  2,  13,  12,   1,  81,  82,  80
  3,   2,   3,  14,  83,  84,  85
  4,  14,  13,   2,  86,  79,  85
  5,   3,   4,  15,  87,  88,  89
  6,  15,  14,   3,  90,  84,  89
  7,   4,   5,  16,  91,  92,  93
  8,  16,  15,   4,  94,  88,  93
  9,   5,   6,  17,  95,  96,  97
 10,  17,  16,   5,  98,  92,  97
 11,   6,   7,  18,  99, 100, 101
 12,  18,  17,   6, 102,  96, 101
 13,   7,   8,  19, 103, 104, 105
 14,  19,  18,   7, 106, 100, 105
 15,   8,   9,  20, 107, 108, 109
 16,  20,  19,   8, 110, 104, 109
 17,   9,  10,  21, 111, 112, 113
 18,  21,  20,   9, 114, 108, 113
 19,  10,  11,  22, 115, 116, 117
 20,  22,  21,  10, 118, 112, 117
** ... 100 like lines cut
*Nset, nset=Node-Left
  34,  45, 153, 184, 215
*Elset, elset=_Surf-Bottom_S1, internal, generate
 3,  7,  2
*Surface, type=ELEMENT, name=Surf-Bottom
_Surf-Bottom_S1, S1
*End Part
**  
**
** ASSEMBLY
**
*Assembly, name=Assembly
**  
*Instance, name=Part-1-1, part=Part-1
*End Instance
**  
*End Assembly
** 
** MATERIALS
** 
*Material, name=Material-1
*Elastic
210., 0.3
** ----------------------------------------------------------------
** 
** STEP: Step-1
** 
*Step, name=Step-1, nlgeom=NO
*Static
1., 1., 1e-05, 1.
** 
** OUTPUT REQUESTS
** 
*Restart, write, frequency=0
** 
** FIELD OUTPUT: F-Output-1
** 
*Output, field, variable=PRESELECT
** 
** HISTORY OUTPUT: H-Output-1
** 
*Output, history, variable=PRESELECT
*End Step
